<?xml version="1.0" encoding="UTF-8"?>

<!-- generated on 2025-06-07 13:57:40 by Eclipse SUMO netedit Version 1.20.0
-->

<routes xmlns:xsi="http://www.w3.org/2001/XMLSchema-instance" xsi:noNamespaceSchemaLocation="http://sumo.dlr.de/xsd/routes_file.xsd">
    <!-- VTypes -->
    <vType id="car"/>
    <!-- Vehicles, persons and containers (sorted by depart) -->
    <flow id="f_0" type="car" begin="0.00" from="E0" to="E0" end="3600.00" vehsPerHour="1800"/>
    <flow id="f_1" type="car" begin="0.00" from="-E0" to="-E0" end="3600.00" vehsPerHour="1800"/>
    <flow id="f_2" type="car" begin="0.00" from="E1" to="E2" end="3600.00" vehsPerHour="1800"/>
    <flow id="f_3" type="car" begin="0.00" from="-E2" to="-E1" end="3600.00" vehsPerHour="1800"/>
</routes>
