<?xml version="1.0" encoding="UTF-8"?>

<!-- generated on 2025-06-07 13:57:49 by Eclipse SUMO netedit Version 1.20.0
<configuration xmlns:xsi="http://www.w3.org/2001/XMLSchema-instance" xsi:noNamespaceSchemaLocation="http://sumo.dlr.de/xsd/neteditConfiguration.xsd">

    <input>
        <sumocfg-file value="C:\Users\othma\OneDrive\Bureau\Test SUMO Veiuns\osm.sumocfg"/>
        <route-files value="C:\Users\othma\OneDrive\Bureau\Test SUMO Veiuns\osm.rou.xml"/>
        <sumo-net-file value="C:\Users\othma\OneDrive\Bureau\Test SUMO Veiuns\osm.net.xml"/>
    </input>

    <output>
        <output-file value="C:\Users\othma\OneDrive\Bureau\Test SUMO Veiuns\osm.net.xml"/>
    </output>

    <processing>
        <offset.disable-normalization value="true"/>
    </processing>

    <junctions>
        <no-turnarounds value="true"/>
    </junctions>

    <netedit>
        <new-network value="false"/>
    </netedit>

</configuration>
-->

<net version="1.20" junctionCornerDetail="5" limitTurnSpeed="5.50" xmlns:xsi="http://www.w3.org/2001/XMLSchema-instance" xsi:noNamespaceSchemaLocation="http://sumo.dlr.de/xsd/net_file.xsd">

    <location netOffset="0.00,0.00" convBoundary="-387.10,-94.23,141.38,202.63" origBoundary="10000000000.00,10000000000.00,-10000000000.00,-10000000000.00" projParameter="!"/>

    <edge id=":J3_0" function="internal">
        <lane id=":J3_0_0" index="0" speed="13.89" length="0.31" shape="-172.28,57.68 -172.28,57.37"/>
    </edge>
    <edge id=":J3_1" function="internal">
        <lane id=":J3_1_0" index="0" speed="13.89" length="0.29" shape="-169.08,57.37 -169.08,57.66"/>
    </edge>

    <edge id="-E0" from="J1" to="J0" priority="-1">
        <lane id="-E0_0" index="0" speed="13.89" length="528.49" shape="-387.11,57.02 141.37,53.71"/>
    </edge>
    <edge id="-E1" from="J3" to="J2" priority="-1">
        <lane id="-E1_0" index="0" speed="13.89" length="144.97" shape="-169.08,57.66 -167.97,202.62"/>
    </edge>
    <edge id="-E2" from="J4" to="J3" priority="-1">
        <lane id="-E2_0" index="0" speed="13.89" length="151.60" shape="-169.35,-94.23 -169.08,57.37"/>
    </edge>
    <edge id="E0" from="J0" to="J1" priority="-1">
        <lane id="E0_0" index="0" speed="13.89" length="528.49" shape="141.39,56.91 -387.09,60.22"/>
    </edge>
    <edge id="E1" from="J2" to="J3" priority="-1">
        <lane id="E1_0" index="0" speed="13.89" length="144.97" shape="-171.17,202.64 -172.28,57.68"/>
    </edge>
    <edge id="E2" from="J3" to="J4" priority="-1">
        <lane id="E2_0" index="0" speed="13.89" length="151.60" shape="-172.28,57.37 -172.55,-94.22"/>
    </edge>

    <tlLogic id="J3" type="static" programID="0" offset="0">
        <phase duration="16" state="GG"/>
        <phase duration="2"  state="yy"/>
        <phase duration="5"  state="rr"/>
    </tlLogic>

    <junction id="J0" type="dead_end" x="141.38" y="55.31" incLanes="-E0_0" intLanes="" shape="141.38,55.31 141.36,52.11 141.38,55.31"/>
    <junction id="J1" type="dead_end" x="-387.10" y="58.62" incLanes="E0_0" intLanes="" shape="-387.10,58.62 -387.08,61.82 -387.10,58.62"/>
    <junction id="J2" type="dead_end" x="-169.57" y="202.63" incLanes="-E1_0" intLanes="" shape="-169.57,202.63 -166.37,202.61 -169.57,202.63"/>
    <junction id="J3" type="traffic_light" x="-170.68" y="57.52" incLanes="E1_0 -E2_0" intLanes=":J3_0_0 :J3_1_0" shape="-173.88,57.69 -167.48,57.64 -167.48,57.36 -173.88,57.38">
        <request index="0" response="00" foes="00" cont="0"/>
        <request index="1" response="00" foes="00" cont="0"/>
    </junction>
    <junction id="J4" type="dead_end" x="-170.95" y="-94.23" incLanes="E2_0" intLanes="" shape="-170.95,-94.23 -174.15,-94.22 -170.95,-94.23"/>

    <connection from="-E2" to="-E1" fromLane="0" toLane="0" via=":J3_1_0" tl="J3" linkIndex="1" dir="s" state="O"/>
    <connection from="E1" to="E2" fromLane="0" toLane="0" via=":J3_0_0" tl="J3" linkIndex="0" dir="s" state="O"/>

    <connection from=":J3_0" to="E2" fromLane="0" toLane="0" dir="s" state="M"/>
    <connection from=":J3_1" to="-E1" fromLane="0" toLane="0" dir="s" state="M"/>

</net>
